<routes>
    <!-- Define vehicle types -->
    <vType id="typeWE" accel="0.8" decel="4.5" sigma="0.5" length="5" minGap="2.5" maxSpeed="16.67" guiShape="passenger/wagon"/>
    <vType id="typeNS" accel="0.8" decel="4.5" sigma="0.5" length="7" minGap="3" maxSpeed="25" guiShape="passenger/van"/>
    <vType id="emergency" accel="1.0" decel="5.0" sigma="0.5" length="5" minGap="2.0" maxSpeed="30" color="1,0,0" guiShape="emergency"/>
</routes>