<?xml version="1.0" encoding="UTF-8"?>

<!-- generated on 2024-04-05 18:35:55 by Eclipse SUMO netedit Version 1.19.0
-->

<additional xmlns:xsi="http://www.w3.org/2001/XMLSchema-instance" xsi:noNamespaceSchemaLocation="http://sumo.dlr.de/xsd/additional_file.xsd">
    <!-- Detectors -->
    <laneAreaDetector id="e2det_0-0E_0" lane="0-0E_0" pos="0.00" length="100.00" period="60.00" file="e2output.xml" friendlyPos="1"/>
    <laneAreaDetector id="e2det_0-0E_1" lane="0-0E_1" pos="0.00" length="100.00" period="60.00" file="e2output.xml" friendlyPos="1"/>
    <laneAreaDetector id="e2det_0-0N_0" lane="0-0N_0" pos="0.00" length="100.00" period="60.00" file="e2output.xml" friendlyPos="1"/>
    <laneAreaDetector id="e2det_0-0N_1" lane="0-0N_1" pos="0.00" length="100.00" period="60.00" file="e2output.xml" friendlyPos="1"/>
    <laneAreaDetector id="e2det_0-0S_0" lane="0-0S_0" pos="0.00" length="100.00" period="60.00" file="e2output.xml" friendlyPos="1"/>
    <laneAreaDetector id="e2det_0-0S_1" lane="0-0S_1" pos="0.00" length="100.00" period="60.00" file="e2output.xml" friendlyPos="1"/>
    <laneAreaDetector id="e2det_0-0W_0" lane="0-0W_0" pos="0.00" length="100.00" period="60.00" file="e2output.xml" friendlyPos="1"/>
    <laneAreaDetector id="e2det_0-0W_1" lane="0-0W_1" pos="0.00" length="100.00" period="60.00" file="e2output.xml" friendlyPos="1"/>
</additional>
