<routes>
        <vType id="typeWE" accel="0.8" decel="4.5" sigma="0.5" length="5"               minGap="2.5" maxSpeed="16.67" guiShape="passenger/wagon"/>
        <vType id="typeNS" accel="0.8" decel="4.5" sigma="0.5" length="7"               minGap="3" maxSpeed="25" guiShape="passenger/van"/>

        <route id="EastBound" edges="W-0W 0W-0 0-0E 0E-E" />
        <route id="WestBound" edges="E-0E 0E-0 0-0W 0W-W" />
        <route id="SouthBound" edges="N-0N 0N-0 0-0S 0S-S" />
        <route id="NorthBound" edges="S-0S 0S-0 0-0N 0N-N" />

</routes>
